[TITLE]
;;Project Title/Notes
*MODEL: Sewer catchment model to simulate sewer discharge from Central Fehraltorf to the the treatment plant at ARA Fehraltorf. This model includes the observed transfer flows from RUMLIKON at location 'f02' (node 555) and RUSSIKON at location 'f03' (node 11d). The model is not complete and may still contain errors!
*TRANSFER FLOWS (f02 & f03): measured (in-)flows at f02 and f03. These observations are included as time series inflows (one *.dat file each transfer flow).
*CALIBRATION: Catchment outflow (link Link_2, leading to outfall node ARA_Fehraltorf) corresponds to the ARA inflow monitored by the plant operators (f00_qin_lps_utc0.dat). Some preliminary calibration was done for the period of May 2016 with r02 rain and ARA inflow observations.
*REFERENCE: Keller, C., Barrett, R., Blumensaat, F. (2018).

[OPTIONS]
;;Option             Value
FLOW_UNITS           LPS
INFILTRATION         HORTON
FLOW_ROUTING         DYNWAVE
LINK_OFFSETS         DEPTH
MIN_SLOPE            0
ALLOW_PONDING        YES
SKIP_STEADY_STATE    YES

START_DATE           06/15/2016
START_TIME           00:00:00
REPORT_START_DATE    06/16/2016
REPORT_START_TIME    00:00:00
END_DATE             09/22/2016
END_TIME             00:00:00
SWEEP_START          01/01
SWEEP_END            12/31
DRY_DAYS             0
REPORT_STEP          00:05:00
WET_STEP             00:00:15
DRY_STEP             00:15:00
ROUTING_STEP         0:00:12 
RULE_STEP            00:00:00

INERTIAL_DAMPING     PARTIAL
NORMAL_FLOW_LIMITED  BOTH
FORCE_MAIN_EQUATION  D-W
VARIABLE_STEP        0.75
LENGTHENING_STEP     0
MIN_SURFAREA         1.14
MAX_TRIALS           8
HEAD_TOLERANCE       0.0015
SYS_FLOW_TOL         5
LAT_FLOW_TOL         5
MINIMUM_STEP         0.5
THREADS              8

[FILES]
;;Interfacing Files
SAVE OUTFLOWS "faf_outflows.txt"

[EVAPORATION]
;;Data Source    Parameters
;;-------------- ----------------
MONTHLY          0.09   0.56   1.22   2.81   3.47   4.6    4.6    4.04   2.91   0.85   0.38   0.09  
DRY_ONLY         NO

[RAINGAGES]
;;Name           Format    Interval SCF      Source    
;;-------------- --------- ------ ------ ----------
rain_gauge       VOLUME    00:01    1.0      FILE       "r02_mm_utc0_1min_feb16_apr20.dat" r02        MM   

[SUBCATCHMENTS]
;;Name           Rain Gage        Outlet           Area     %Imperv  Width    %Slope   CurbLen  SnowPack        
;;-------------- ---------------- ---------------- -------- -------- -------- -------- -------- ----------------
A0005RT          rain_gauge       102a             0.07919  32       28.1412  5.48     0                        
A0010RT          rain_gauge       102c             0.14477  32       38.0482  4.93     0                        
A0015RT          rain_gauge       603              0.39542  32       62.8821  6.88     0                        
A0020RT          rain_gauge       603              0.37105  32       60.9142  7.21     0                        
A0025RT          rain_gauge       602              0.80382  32       89.6562  6.86     0                        
A0030RT          rain_gauge       605              0.92626  32       96.2425  5.87     0                        
A0035RT          rain_gauge       102d             0.11466  32       33.8609  6.8      0                        
A0040RT          rain_gauge       6_SBW            0.16359  32       40.4463  7.47     0                        
A0045RT          rain_gauge       102a             0.05273  32       22.9625  5.73     0                        
A0065RT          rain_gauge       13d              0.44036  27       66.3594  13.73    0                        
A0070RT          rain_gauge       12b              0.74122  27       86.0943  14.46    0                        
A0075RT          rain_gauge       11g              0.64356  27       80.222   20.39    0                        
A0080RT          rain_gauge       13               0.15228  27       39.0233  7.97     0                        
A0085RT          rain_gauge       13               0.05881  32       24.2509  4.72     0                        
A0090RT          rain_gauge       12               0.01696  32       13.0211  5.6      0                        
A0095RT          rain_gauge       608              0.29996  32       54.7687  5.98     0                        
A0100RT          rain_gauge       608              0.33702  32       58.0538  7.6      0                        
A0105RT          rain_gauge       601              0.35195  32       59.325   5.76     0                        
A0110RT          rain_gauge       601              0.08899  32       29.8311  7.03     0                        
A0115RT          rain_gauge       5h               0.5304   32       72.8288  5.32     0                        
A0120RT          rain_gauge       5h               0.51442  32       71.7234  3.26     0                        
A0125RT          rain_gauge       102k             0.14552  32       38.1473  6.2      0                        
A0130RT          rain_gauge       102d             0.05218  32       22.8434  4.78     0                        
A0135RT          rain_gauge       102e             0.2145   32       46.3142  3.39     0                        
A0140RT          rain_gauge       102e             0.03321  32       18.2221  8.56     0                        
A0145RT          rain_gauge       102f             0.51632  32       71.8556  5.66     0                        
A0150RT          rain_gauge       102g             0.0717   32       26.7765  6.65     0                        
A0155RT          rain_gauge       102g             0.07737  32       27.8156  6.23     0                        
A0160RT          rain_gauge       13               0.03993  32       19.9827  2.33     0                        
A0165RT          rain_gauge       13               0.26648  27       51.6219  5.41     0                        
B0005RT          rain_gauge       386              0.96529  32       98.249   6.52     0                        
B0010RT          rain_gauge       384              0.27066  32       52.0245  10.34    0                        
B0015RT          rain_gauge       382b             2.7833   32       166.8317 4.3      0                        
B0016RT          rain_gauge       381b             0        0        74.3101  15.09    0                        
B0020RT          rain_gauge       381b             0        0        100.9355 15       0                        
B0025RT          rain_gauge       145              0        0        71.7639  16.55    0                        
B0030RT          rain_gauge       17b              0.49822  32       70.5845  10.04    0                        
B0035RT          rain_gauge       17               0        0        61.274   4.36     0                        
B0040RT          rain_gauge       146              0.39176  27       62.591   19.38    0                        
B0045RT          rain_gauge       145              0.16549  27       40.6811  4.94     0                        
B0050RT          rain_gauge       147              0.18175  27       42.6325  12.34    0                        
B0055RT          rain_gauge       147              0.01522  32       12.3372  18.37    0                        
B0060RT          rain_gauge       144              0.90662  27       95.2168  21.75    0                        
B0065RT          rain_gauge       148              0.11454  27       33.8438  8.7      0                        
B0066RT          rain_gauge       148              0        0        27.3371  4.1      0                        
B0070RT          rain_gauge       14               0.10458  27       32.3392  3.54     0                        
B0075RT          rain_gauge       149              0.1251   32       35.3695  11.98    0                        
B0080RT          rain_gauge       149              0.10066  32       31.7267  6.84     0                        
B0085RT          rain_gauge       149              0.07164  32       26.7657  16.89    0                        
B0090RT          rain_gauge       149              0.22288  32       47.2106  6.53     0                        
B0095RT          rain_gauge       14b              0.7942   32       89.118   4.13     0                        
B0100RT          rain_gauge       18               0.30611  32       55.3273  4.39     0                        
B0105RT          rain_gauge       17               0.31734  32       56.3326  9.11     0                        
B0110RT          rain_gauge       386              0.29691  32       54.4899  6.79     0                        
B0115RT          rain_gauge       156SW            0.09038  32       30.0639  4.22     0                        
B0120RT          rain_gauge       22a              0.16355  32       40.4419  11.55    0                        
B0125RT          rain_gauge       22a              0.18757  45       43.3094  5.04     0                        
B0126RT          rain_gauge       22a              0        0        25.9459  6.86     0                        
B0130RT          rain_gauge       22a              0.1744   45       41.7608  3.28     0                        
B0135RT          rain_gauge       23               0.57269  45       75.6764  3.74     0                        
B0140RT          rain_gauge       14               0.279    32       52.82    6.36     0                        
B0145RT          rain_gauge       8a               0.30872  32       55.5622  3.49     0                        
B0146RT          rain_gauge       9                0        0        40.4821  3.97     0                        
B0150RT          rain_gauge       385              0.49085  32       70.061   8.67     0                        
B0155RT          rain_gauge       386              0.34503  32       58.7394  7.09     0                        
B0160RT          rain_gauge       387              0.4746   32       68.891   4.59     0                        
B0161RT          rain_gauge       389              0        0        84.3093  3.75     0                        
B0165RT          rain_gauge       VS_22            0.20371  32       45.1345  6.13     0                        
B0170RT          rain_gauge       9                0.12752  32       35.7101  4.18     0                        
B0175RT          rain_gauge       9                0.15919  32       39.8986  3.66     0                        
B0180RT          rain_gauge       15a              0.38505  32       62.0528  4.76     0                        
B0181RT          rain_gauge       15a              0        0        44.2437  8.34     0                        
B0182RT          rain_gauge       15               0        0        53.5153  2.38     0                        
B0185RT          rain_gauge       VS_22            0.0701   32       26.4756  4.7      0                        
B0186RT          rain_gauge       VS_22            0        0        19.2285  3.41     0                        
B0190RT          rain_gauge       VS_22            0.10757  45       32.798   3.37     0                        
B0195RT          rain_gauge       VS_22            0.01867  45       13.6649  3.66     0                        
B0200RT          rain_gauge       VS_22            0.07081  45       26.6107  3.77     0                        
B0205RT          rain_gauge       9                0.09302  45       30.4991  3.58     0                        
B0210RT          rain_gauge       150              0.11976  32       34.6062  3.21     0                        
B0215RT          rain_gauge       22a              0.12965  45       36.0071  4.17     0                        
B0220RT          rain_gauge       150b             0.32922  45       57.3779  6        0                        
B0225RT          rain_gauge       23               0.19073  32       43.6721  4.25     0                        
B0226RT          rain_gauge       23               0        0        31.96    3.25     0                        
B0227RT          rain_gauge       23               0        0        30.7422  3.86     0                        
B0230RT          rain_gauge       374              0.64827  32       80.5155  11.05    0                        
B0235RT          rain_gauge       124a             0.1362   32       36.9058  4.75     0                        
B0245RT          rain_gauge       124              0.32866  32       57.3289  4.77     0                        
B0255RT          rain_gauge       104a             0.13244  32       36.3921  8.02     0                        
B0260RT          rain_gauge       104b             0.25879  32       50.8711  6.19     0                        
B0265RT          rain_gauge       104e             0.31353  32       55.9936  3.65     0                        
B0280RT          rain_gauge       122              0.30489  32       55.2169  8.61     0                        
B0290RT          rain_gauge       121              0.32961  32       57.4114  11.6     0                        
B0295RT          rain_gauge       153              0.01395  45       11.8092  3.54     0                        
B0300RT          rain_gauge       150b             0.35396  45       59.4947  4.12     0                        
B0305RT          rain_gauge       106              0.29178  45       54.017   4.83     0                        
B0310RT          rain_gauge       153              0.21886  32       46.783   4.37     0                        
B0315RT          rain_gauge       156SW            0.3949   45       62.8412  6.25     0                        
B0320RT          rain_gauge       156SW            0.14086  32       37.531   5.33     0                        
B0325RT          rain_gauge       125_SBW          0.05402  32       23.2417  2.55     0                        
B0330RT          rain_gauge       8                0.47587  32       68.9831  4.14     0                        
B0335RT          rain_gauge       105              0.42522  32       65.2093  3.4      0                        
B0340RT          rain_gauge       150              0.53867  32       73.3938  8.32     0                        
B0345RT          rain_gauge       106              0.15027  45       38.7644  4.34     0                        
B0350RT          rain_gauge       104d             0.16603  32       40.7471  7.84     0                        
B0355RT          rain_gauge       104c             0.66809  32       81.7367  7.92     0                        
B0360RT          rain_gauge       7a               0.95043  32       97.4899  5.12     0                        
B0365RT          rain_gauge       14b              0.50249  32       70.8868  6.58     0                        
B0370RT          rain_gauge       14a              0.41378  32       64.326   7.7      0                        
B0375RT          rain_gauge       6b               0.40362  32       63.5312  7.48     0                        
B0380RT          rain_gauge       6a               0.49346  32       70.2466  6.05     0                        
B0390RT          rain_gauge       128a_Blindsch.   0.53998  32       73.4831  4.11     0                        
B0405RT          rain_gauge       106              0.01075  32       10.3657  4.98     0                        
B0415RT          rain_gauge       156SW            0.41185  32       64.1755  5.21     0                        
B0440RT          rain_gauge       14               0.22105  32       47.0157  3.49     0                        
B0460R           rain_gauge       103b             0.1338   45       36.5787  7.1      0                        
B0465R           rain_gauge       103b             0.46037  45       67.8506  7.1      0                        
B0470R           rain_gauge       103c             0.54502  45       73.8257  7.1      0                        
B0475R           rain_gauge       138_SBW          0.07539  45       27.4564  3.26     0                        
B0480R           rain_gauge       128a_Blindsch.   0.51292  32       71.6185  9.66     0                        
B0490R           rain_gauge       103b             0.0496   45       22.2717  7.1      0                        
B0520RT          rain_gauge       18               0.61295  32       78.2913  8.17     0                        
C0010RT          rain_gauge       42               0.60735  32       77.9329  5.96     0                        
C0020RT          rain_gauge       38               0.6102   45       78.1153  5.63     0                        
C0040RT          rain_gauge       40               0.16742  45       40.9172  5.7      0                        
C0050RT          rain_gauge       40b              0.23717  45       48.7004  6.97     0                        
C0055RT          rain_gauge       40b              0.52488  45       72.4489  9.6      0                        
C0060RT          rain_gauge       1102             0.41354  32       64.307   7.31     0                        
C0065RT          rain_gauge       1100             0        0        32.8355  2.93     0                        
C0066RT          rain_gauge       36               0        0        42.0412  9.92     0                        
C0070RT          rain_gauge       36               0.28677  45       53.5511  8.33     0                        
C0075RT          rain_gauge       35a              0.23795  32       48.7798  4.88     0                        
C0080RT          rain_gauge       40               0.22665  45       47.6074  10.75    0                        
C0081RT          rain_gauge       40               0        0        46.6212  14.16    0                        
C0085RT          rain_gauge       39               0.37043  45       60.8628  3.34     0                        
C0120RT          rain_gauge       34               0.54353  32       73.7245  3.87     0                        
C0125RT          rain_gauge       35a              0.53811  32       73.356   5.87     0                        
C0130RT          rain_gauge       35a              0.01025  32       10.1234  9.3      0                        
C0135RT          rain_gauge       285              0.43772  26       66.1603  9.45     0                        
C0140RT          rain_gauge       284a             1.107    26       105.214  6.15     0                        
C0145RT          rain_gauge       285              0.53905  26       73.4197  6.99     0                        
C0150RT          rain_gauge       376a             0.89638  32       94.6771  10.1     0                        
C0155RT          rain_gauge       377a             0.06542  32       25.5774  7.05     0                        
C0160RT          rain_gauge       211              0.18614  45       43.1443  10.45    0                        
C0165RT          rain_gauge       210              0.28809  45       53.6742  12.6     0                        
C0170RT          rain_gauge       208              0.43085  45       65.6389  12.48    0                        
C0175RT          rain_gauge       207              0.14251  45       37.7501  7.77     0                        
C0180RT          rain_gauge       207b             0.12482  45       35.3304  4.06     0                        
C0185RT          rain_gauge       377              0.13816  32       37.1695  9.58     0                        
C0190RT          rain_gauge       381b             0        0        37.0869  7.87     0                        
C0200RT          rain_gauge       37a              0.38735  32       62.2374  8.65     0                        
C0205RT          rain_gauge       27b              0.52494  32       72.4528  8.89     0                        
C0210RT          rain_gauge       27b              0.19238  32       43.8608  7.25     0                        
C0215RT          rain_gauge       287              0.27522  32       52.4612  4.91     0                        
C0220RT          rain_gauge       36               0.17931  32       42.3445  8.49     0                        
C0225RT          rain_gauge       28c              0.18827  32       43.3899  8.38     0                        
C0230RT          rain_gauge       28c              0.11525  45       33.9491  3.37     0                        
C0235RT          rain_gauge       28b              0.24102  32       49.0942  7.39     0                        
C0236RT          rain_gauge       28c              0        0        32.8425  10.03    0                        
C0237RT          rain_gauge       28c              0        0        24.3972  20.65    0                        
C0240RT          rain_gauge       377              0.03733  45       19.3205  8.86     0                        
C0245RT          rain_gauge       378              0.24531  32       49.5288  12.44    0                        
C0250RT          rain_gauge       377              0.2085   45       45.6614  7.43     0                        
C0255RT          rain_gauge       379              0.0949   45       30.8055  7.46     0                        
C0260RT          rain_gauge       37               0.32839  45       57.305   3.22     0                        
C0265RT          rain_gauge       37a              0.14178  45       37.6538  4.3      0                        
C0270RT          rain_gauge       VS_22            0.01314  45       11.4618  4.87     0                        
C0275RT          rain_gauge       37a              0.01342  45       11.5844  3.33     0                        
C0280RT          rain_gauge       38b              0.47194  45       68.6979  5.42     0                        
C0281RT          rain_gauge       40               0        0        73.2691  5.85     0                        
C0285RT          rain_gauge       28c              0.2247   45       47.4028  11.92    0                        
C0290RT          rain_gauge       28               0.34894  32       59.0709  7.86     0                        
C0295RT          rain_gauge       284a             1.2281   26       110.819  3.31     0                        
C0320RT          rain_gauge       35a              0.18556  32       43.0763  3.56     0                        
C0325RT          rain_gauge       40               0.03572  32       18.9009  2.75     0                        
C0385R           rain_gauge       446a             0.38077  45       61.7068  4.79     0                        
C0390R           rain_gauge       446b             0.06331  32       25.1617  7.1      0                        
C0400R           rain_gauge       137              0.66734  45       81.6911  7.1      0                        
C0425R           rain_gauge       161              0.26813  45       51.7816  7.1      0                        
C0450R           rain_gauge       451c             0.1478   32       38.4448  7.1      0                        
C0455R           rain_gauge       446b             0.33703  32       58.0539  7.1      0                        
C0505R           rain_gauge       447b             0.64589  32       80.3671  7.1      0                        
C0550RT          rain_gauge       381              0.46572  32       68.2435  13.36    0                        
D0040RT          rain_gauge       33a              0.1959   32       44.2606  6.03     0                        
D0045RT          rain_gauge       575              0.21054  32       45.8847  4.76     0                        
D0050RT          rain_gauge       56a              0.26833  32       51.8002  6.67     0                        
D0055RT          rain_gauge       27               0.06349  32       25.1977  10.29    0                        
D0060RT          rain_gauge       27               0.11272  32       33.574   5.43     0                        
D0065RT          rain_gauge       33b              0.36752  32       60.6235  4.52     0                        
D0105RT          rain_gauge       566              0        0        93.084   3.25     0                        
D0110RT          rain_gauge       566              0        0        175.0046 1.88     0                        
D0115RT          rain_gauge       565              1.0136   26       100.6762 2.47     0                        
D0120RT          rain_gauge       565              0.93158  26       96.5186  7.09     0                        
D0125RT          rain_gauge       567              0.52353  26       72.3553  12.59    0                        
D0140RT          rain_gauge       33b              0.33554  32       57.9255  4.54     0                        
D0145RT          rain_gauge       26a              0        0        65.2472  2.88     0                        
D0150RT          rain_gauge       27               0.09407  32       30.6712  3.5      0                        
D0405RT          rain_gauge       566              0        0        122.544  5.98     0                        
E0010RT          rain_gauge       597m             0        0        31.4951  2.32     0                        
E0015RT          rain_gauge       597m             0.05967  45       24.4265  3.77     0                        
E0020RT          rain_gauge       591m             0.14724  45       38.3715  6.79     0                        
E0030RT          rain_gauge       597n             0.01413  45       11.885   6.7      0                        
E0035RT          rain_gauge       597e             0.26889  45       51.8547  7.9      0                        
E0040RT          rain_gauge       597m             0.17021  45       41.2567  7.9      0                        
E0045RT          rain_gauge       597n             0.18748  45       43.2985  8.61     0                        
E0050RT          rain_gauge       597d             0.14083  45       37.5271  5.24     0                        
E0055RT          rain_gauge       597b             0.58563  45       76.5263  8.7      0                        
E0060RT          rain_gauge       591p             0.08031  45       28.3386  6.16     0                        
E0070RT          rain_gauge       591o             0.07596  45       27.5614  4.25     0                        
E0085RT          rain_gauge       597i             0.77288  45       87.9137  4.01     0                        
E0090RT          rain_gauge       597_SBW          1.2674   32       112.5809 8.19     0                        
E0095RT          rain_gauge       597g             0.90254  45       95.0021  11.46    0                        
E0135RT          rain_gauge       597f             1.1566   45       107.5467 7.87     0                        
E0145RT          rain_gauge       597m             0        0        41.6727  3.08     0                        
E0150RT          rain_gauge       597e             0        0        39.402   9.58     0                        
E0155RT          rain_gauge       596__Spez.sch.   0.866    45       93.059   10.74    0                        
E0160RT          rain_gauge       596d             0.50117  45       70.7935  11.89    0                        
E0165RT          rain_gauge       596              0        0        49.6794  4.43     0                        
E0170RT          rain_gauge       591q             0.07505  45       27.3948  3.9      0                        
E0175RT          rain_gauge       597k             1.0391   45       101.9373 2.83     0                        
E0180RT          rain_gauge       597_SBW          0.17687  45       42.0556  5.74     0                        
E0190RT          rain_gauge       597n             0.04024  45       20.0595  9.62     0                        
F0005RT          rain_gauge       805j             1.5608   45       124.9338 6.45     0                        
F0010RT          rain_gauge       805h             2.1117   45       145.3165 5.49     0                        
F0015RT          rain_gauge       801e             1.5044   45       122.653  5.4      0                        
F0020RT          rain_gauge       805a             0.62013  45       78.7485  5.76     0                        
F0025RT          rain_gauge       805c             0.49087  45       70.0619  4.73     0                        
F0030RT          rain_gauge       805b             0.06369  45       25.2359  5.07     0                        
F0035RT          rain_gauge       805d             0.43718  45       66.1198  5.5      0                        
F0040RT          rain_gauge       805e             0.66036  45       81.2625  7.51     0                        
F0045RT          rain_gauge       805k             1.268    45       112.6051 4.25     0                        
F0050RT          rain_gauge       805g             0.90294  45       95.023   3.38     0                        
F0055RT          rain_gauge       805_SBW          0.56518  45       75.1786  3.58     0                        
F0060RT          rain_gauge       805_SBW          0.44668  45       66.8344  8.15     0                        
F0065RT          rain_gauge       804              0.53799  45       73.3478  2.81     0                        
F0070RT          rain_gauge       802              1.3112   45       114.506  2.39     0                        
F0075RT          rain_gauge       802              0.69726  45       83.5018  2.63     0                        
F0080RT          rain_gauge       801h             0.67151  45       81.9454  2.83     0                        
F0085RT          rain_gauge       802              0.29552  45       54.3619  2.84     0                        
F0090RT          rain_gauge       801d             0.12416  45       35.2362  1.95     0                        
F0095RT          rain_gauge       801d             0.21074  45       45.9069  2.14     0                        
F0105RT          rain_gauge       801c             0.63622  45       79.7634  9.59     0                        
F0110RT          rain_gauge       P366             0.61334  45       78.3158  9.35     0                        